ipss.test.plugin.core/testData/psse/V32/aeso/2013_SPL.raw
0,   100.00, 33, 0, 1, 60.00     / PSS(R)E-33.4    THU, JUN 27 2013   0:34
TASMO MODEL; OUTPUT GENERATED 2012-09-18 09:36:04
SWINGBUS 1520 FOR 2012LPBL-1:2013-03-01:1:203--1-0-0-0
     1,'JUDY515S    ',  69.0000,1,  26,  99,  17,1.05320, -22.1481,1.10000,0.90000,1.10000,0.90000
     2,'MAYERTH     ', 138.0000,1,  40,  99,  17,1.02324, -18.7222,1.10000,0.90000,1.10000,0.90000
     3,'COLINTO7    ', 138.0000,1,  27,  99,  17,1.03675, -19.5044,1.10000,0.90000,1.10000,0.90000
     4,'WESTLOC7    ', 138.0000,1,  27,  99,  17,1.03325, -17.3752,1.10000,0.90000,1.10000,0.90000
     5,'CLYDE  7    ', 138.0000,1,  27,  99,  17,1.03354, -17.5317,1.10000,0.90000,1.10000,0.90000
     6,'DICKSOA9    ',   4.1600,1,  39,  99,   7,1.04526, -21.5100,1.10000,0.90000,1.10000,0.90000
     7,'BOYLE  7    ', 138.0000,1,  27,  99,  17,1.04185, -20.2906,1.10000,0.90000,1.10000,0.90000
     8,'WHI 3647    ', 138.0000,1,  26,  99,  17,1.02902, -20.0193,1.10000,0.90000,1.10000,0.90000
     9,'WHITECO7    ', 138.0000,1,  26,  99,  17,1.02954, -20.4140,1.10000,0.90000,1.10000,0.90000
    10,'WHITECO8    ',  69.0000,1,  26,  99,  17,1.05801, -19.8090,1.10000,0.90000,1.10000,0.90000
    12,'FOX CREE    ', 138.0000,1,  24,  99,  17,1.03152, -22.3037,1.10000,0.90000,1.10000,0.90000
    13,'KAYBOB 7    ', 138.0000,1,  24,  99,  17,1.01678, -21.3600,1.10000,0.90000,1.10000,0.90000
    14,'WESGEN 9    ',  13.8000,2,  27,  99,   4,1.02500, -14.2451,1.10000,0.90000,1.10000,0.90000
    15,'MTN COA7    ', 138.0000,1,  29,  99,  17,1.00547, -18.1907,1.10000,0.90000,1.10000,0.90000
    16,'FLATBUS7    ', 138.0000,1,  27,  99,  17,1.03493, -16.8904,1.10000,0.90000,1.10000,0.90000
    17,'COLD CR7    ', 138.0000,1,  29,  99,  17,1.00169, -18.4426,1.10000,0.90000,1.10000,0.90000
    18,'GULF RO7    ', 138.0000,1,  29,  99,  17,1.01160, -18.0088,1.10000,0.90000,1.10000,0.90000
    19,'WESGEN T    ', 138.0000,1,  27,  99,  17,1.03627, -16.7922,1.10000,0.90000,1.10000,0.90000
    20,'EDSON  7    ', 138.0000,1,  29,  99,  17,1.01788, -17.4910,1.10000,0.90000,1.10000,0.90000
    21,'WESGEN 7    ', 138.0000,1,  27,  99,   4,1.03695, -16.4755,1.10000,0.90000,1.10000,0.90000
    26,'ENTWIST7    ', 138.0000,1,  40,  99,  17,1.01906, -17.0128,1.10000,0.90000,1.10000,0.90000
    27,'WABAMUN8    ',  69.0000,1,  40,  99,  17,1.03324, -14.5413,1.10000,0.90000,1.10000,0.90000
    31,'FINCAST7    ', 138.0000,1,  52,  99,  17,1.00832, -23.5246,1.10000,0.90000,1.10000,0.90000
    32,'ONOWAY 8    ',  69.0000,1,  40,  99,  17,1.03383, -14.5703,1.10000,0.90000,1.10000,0.90000
    33,'BRAZEAA9    ',  13.2000,2,  30,  99,  17,1.00761, -20.5462,1.10000,0.90000,1.10000,0.90000
    35,'LODGEPO7    ', 138.0000,1,  30,  99,  17,1.00893, -18.6564,1.10000,0.90000,1.10000,0.90000
    36,'BRAZEAU7    ', 138.0000,1,  30,  99,  17,1.02271, -18.8589,1.10000,0.90000,1.10000,0.90000
    37,'HRT EXP7    ', 138.0000,1,  32,  99,  25,1.03435, -24.7854,1.10000,0.90000,1.10000,0.90000
    38,'BRAZ OUT    ', 138.0000,1,  30,  99,  17,1.01867, -19.4995,1.10000,0.90000,1.10000,0.90000
    39,'CYNTHIA7    ', 138.0000,1,  30,  99,  17,1.01173, -19.7188,1.10000,0.90000,1.10000,0.90000
    40,'N CALDE7    ', 138.0000,1,  60,  99,  17,1.03611, -15.3656,1.10000,0.90000,1.10000,0.90000
    41,'N BARRH7    ', 138.0000,1,  40,  99,  17,1.03401, -17.1784,1.10000,0.90000,1.10000,0.90000
    42,'AMOCO BR    ', 138.0000,1,  30,  99,  17,1.01653, -20.4648,1.10000,0.90000,1.10000,0.90000
    43,'SCOTF_4     ', 138.0000,2,  33,  99,  29,1.03000, -14.8234,1.10000,0.90000,1.10000,0.90000
    44,'FT ASBN7    ', 138.0000,1,  40,  99,  17,1.04133, -19.1456,1.10000,0.90000,1.10000,0.90000
    47,'SHERWOO7    ', 138.0000,1,  60,  99,  17,1.02610, -15.1417,1.10000,0.90000,1.10000,0.90000
    48,'DIAM SH7    ', 138.0000,1,  33,  99,  17,1.03227, -14.7853,1.10000,0.90000,1.10000,0.90000
    49,'KEYSTON7    ', 138.0000,1,  30,  99,  17,1.01256, -13.3628,1.10000,0.90000,1.10000,0.90000
    50,'RIVERSID    ', 138.0000,2,  33,  99, 211,1.02923, -14.9302,1.10000,0.90000,1.10000,0.90000
    51,'W PEMBI7    ', 138.0000,1,  30,  99,  17,1.01309, -20.4315,1.10000,0.90000,1.10000,0.90000
    52,'BLUERIDG    ', 138.0000,1,  26,  99,  17,1.02305, -20.0344,1.10000,0.90000,1.10000,0.90000
    53,'SANDYPT7    ', 138.0000,1,  48,  99,  17,1.03175, -25.9105,1.10000,0.90000,1.10000,0.90000
    55,'GULF OI7    ', 138.0000,1,  60,  99,  17,1.02988, -15.0319,1.10000,0.90000,1.10000,0.90000
    56,'IPPL ED7    ', 138.0000,1,  60,  99,  17,1.03053, -15.0052,1.10000,0.90000,1.10000,0.90000
    57,'LAMOURE4    ', 240.0000,1,  33,  99,  17,1.03666, -13.8398,1.10000,0.90000,1.10000,0.90000
    58,'FORT SA7    ', 138.0000,1,  60,  99,  17,1.02898, -14.7519,1.10000,0.90000,1.10000,0.90000
    59,'REDWATE7    ', 138.0000,1,  33,  99,  17,1.02005, -15.2986,1.10000,0.90000,1.10000,0.90000
    60,'BEAMER 7    ', 138.0000,1,  33,  99,  17,1.02635, -15.0303,1.10000,0.90000,1.10000,0.90000
    61,'UN CARB9    ', 138.0000,2,  33,  99, 191,1.03000, -14.5716,1.10000,0.90000,1.10000,0.90000
    62,'SHERRIT7    ', 138.0000,1,  33,  99,  17,1.02951, -14.7353,1.10000,0.90000,1.10000,0.90000
    63,'LAMOURE7    ', 138.0000,1,  33,  99,  17,1.03196, -14.6095,1.10000,0.90000,1.10000,0.90000
    64,'BANFF  7    ', 138.0000,1,  44,  99,  17,1.02750, -24.4708,1.10000,0.90000,1.10000,0.90000
    65,'BARDO  7    ', 138.0000,1,  31,  99,  17,1.02884, -17.9426,1.10000,0.90000,1.10000,0.90000
    66,'IOL 737L    ', 138.0000,1,  60,  99,  17,1.02904, -15.0758,1.10000,0.90000,1.10000,0.90000
    67,'BRUDERH7    ', 138.0000,1,  33,  99,  17,1.03383, -15.0453,1.10000,0.90000,1.10000,0.90000
    68,'N HOLDE7    ', 138.0000,1,  56,  99,  17,1.04143, -19.0239,1.10000,0.90000,1.10000,0.90000
    69,'IOL 738L    ', 138.0000,1,  60,  99,  17,1.02445, -15.3655,1.10000,0.90000,1.10000,0.90000
    70,'CAMROSE7    ', 138.0000,1,  31,  99,  17,1.02149, -18.0627,1.10000,0.90000,1.10000,0.90000
    71,'JARROW 8    ',  69.0000,1,  32,  99,  17,1.05900, -23.2413,1.10000,0.90000,1.10000,0.90000
    72,'JARROW 7    ', 138.0000,1,  32,  99,  17,1.04070, -23.2238,1.10000,0.90000,1.10000,0.90000
    73,'HARDIST7    ', 138.0000,1,  32,  99,  17,1.03486, -24.7989,1.10000,0.90000,1.10000,0.90000
    74,'METIS647    ', 138.0000,1,  37,  99,  17,1.02053, -23.3598,1.10000,0.90000,1.10000,0.90000
    75,'HUGHEND7    ', 138.0000,1,  37,  99,  17,1.02343, -24.2809,1.10000,0.90000,1.10000,0.90000
    76,'IPPL ST7    ', 138.0000,1,  56,  99,  17,1.06524, -17.4810,1.10000,0.90000,1.10000,0.90000
    77,'WAINWRI8    ',  69.0000,1,  32,  99,  17,1.06043, -23.3503,1.10000,0.90000,1.10000,0.90000
    78,'SEDGEWI7    ', 138.0000,1,  32,  99,  17,1.04454, -21.7040,1.10000,0.90000,1.10000,0.90000
    79,'BUFFALO7    ', 138.0000,1,  32,  99,  17,1.03772, -24.3968,1.10000,0.90000,1.10000,0.90000
    80,'BUCKLAK7    ', 138.0000,1,  30,  99,  17,1.00534, -16.7380,1.10000,0.90000,1.10000,0.90000
    81,'BIGSTON4    ', 240.0000,1,  31,  99,  17,1.03197, -13.8328,1.10000,0.90000,1.10000,0.90000
    82,'CHEVRON7    ', 138.0000,1,  24,  99,  17,1.01653, -21.3683,1.10000,0.90000,1.10000,0.90000
    83,'RBCUPIL7    ', 138.0000,1,  17,  99,  21,1.08236, -28.2132,1.10000,0.90000,1.10000,0.90000
    85,'MILLAR 7    ', 138.0000,1,  26,  99,  17,1.01015, -20.5466,1.10000,0.90000,1.10000,0.90000
    86,'PROVOST7    ', 138.0000,1,  37,  99,  17,1.01211, -23.7359,1.10000,0.90000,1.10000,0.90000
    87,'METIS644    ', 240.0000,1,  37,  99,  17,1.06012, -20.9483,1.10000,0.90000,1.10000,0.90000
    88,'BICKERD7    ', 138.0000,1,  29,  99,  17,1.02221, -17.0363,1.10000,0.90000,1.10000,0.90000
    89,'E EDMON7    ', 138.0000,1,  60,  99,  17,1.03115, -14.9728,1.10000,0.90000,1.10000,0.90000
    90,'BICKERD4    ', 240.0000,1,  29,  99,  17,1.07722, -15.2199,1.10000,0.90000,1.10000,0.90000
    91,'NISKU  7    ', 138.0000,1,  60,  99,  17,1.02230, -17.1621,1.10000,0.90000,1.10000,0.90000
    93,'WETASKI7    ', 138.0000,1,  31,  99,  17,1.03065, -17.2009,1.10000,0.90000,1.10000,0.90000
    94,'ERVICK 7    ', 138.0000,1,  31,  99,  17,1.02226, -17.9280,1.10000,0.90000,1.10000,0.90000
    95,'PONOKA 7    ', 138.0000,1,  31,  99,  17,1.01810, -18.6655,1.10000,0.90000,1.10000,0.90000
    96,'DEVON  7    ', 138.0000,1,  60,  99,  17,1.01370, -17.2856,1.10000,0.90000,1.10000,0.90000
    97,'ECKVILL7    ', 138.0000,1,  35,  99,  17,1.02506, -18.3535,1.10000,0.90000,1.10000,0.90000
    98,'RIMBEY 7    ', 138.0000,1,  35,  99,  17,1.01549, -18.7783,1.10000,0.90000,1.10000,0.90000
    99,'BENALTO7    ', 138.0000,1,  35,  99,  17,1.03183, -18.0393,1.10000,0.90000,1.10000,0.90000
   100,'ROCKY M7    ', 138.0000,1,  38,  99,  17,1.01151, -20.0379,1.10000,0.90000,1.10000,0.90000
   101,'COOKING7    ', 138.0000,1,  60,  99,  17,1.02574, -16.8590,1.10000,0.90000,1.10000,0.90000
   102,'BIGHORN1    ',  13.8000,2,  34,  99,  17,0.98804, -18.3753,1.10000,0.90000,1.10000,0.90000
   103,'BIG HOR7    ', 138.0000,1,  34,  99,  17,1.00781, -18.3753,1.10000,0.90000,1.10000,0.90000
   104,'STRACHA7    ', 138.0000,1,  38,  99,  17,1.01119, -20.7772,1.10000,0.90000,1.10000,0.90000
   105,'PIGEON 7    ', 138.0000,1,  31,  99,  17,1.02302, -17.2053,1.10000,0.90000,1.10000,0.90000
   106,'DEERLAN7    ', 138.0000,1,  33,  99,  17,1.02758, -14.8787,1.10000,0.90000,1.10000,0.90000
   107,'SUNDRE 7    ', 138.0000,1,  38,  99,  17,0.98746, -22.1946,1.10000,0.90000,1.10000,0.90000
   108,'BIGHORN2    ',  13.8000,2,  34,  99,  17,0.97200, -14.9455,1.10000,0.90000,1.10000,0.90000
   109,'DEERLAN4    ', 240.0000,1,  33,  99,  17,1.05432, -14.2769,1.10000,0.90000,1.10000,0.90000
   110,'IPL EDM7    ', 138.0000,1,  60,  99,  17,1.03053, -15.0058,1.10000,0.90000,1.10000,0.90000
   111,'SANDHIL7    ', 138.0000,1,  48,  99,  17,1.03172, -25.9274,1.10000,0.90000,1.10000,0.90000
   112,'SUNKEN7     ', 138.0000,1,  37,  99,  17,1.02048, -23.3755,1.10000,0.90000,1.10000,0.90000
   113,'BLACKFA7    ', 138.0000,1,  35,  99,  17,1.02147, -19.1391,1.10000,0.90000,1.10000,0.90000
   114,'LACOMBE7    ', 138.0000,1,  35,  99,  17,1.01696, -19.1445,1.10000,0.90000,1.10000,0.90000
   115,'S RED DE    ', 138.0000,1,  35,  99,  17,1.02512, -18.9470,1.10000,0.90000,1.10000,0.90000
   116,'W LACOMB    ', 138.0000,1,  35,  99,  17,1.01906, -19.0642,1.10000,0.90000,1.10000,0.90000
   117,'RED DE A    ', 138.0000,1,  35,  99,  17,1.02456, -18.8181,1.10000,0.90000,1.10000,0.90000
   118,'RED DE B    ', 138.0000,1,  35,  99,  17,1.02456, -18.8181,1.10000,0.90000,1.10000,0.90000
   119,'N RED D7    ', 138.0000,1,  35,  99,  17,1.02800, -19.0107,1.10000,0.90000,1.10000,0.90000
   120,'INNISFA7    ', 138.0000,1,  39,  99,  17,1.01068, -20.3946,1.10000,0.90000,1.10000,0.90000
   121,'OLDS   7    ', 138.0000,1,  39,  99,  17,0.99879, -22.0182,1.10000,0.90000,1.10000,0.90000
   122,'MADDEN 7    ', 138.0000,1,  39,  99,  17,0.99851, -23.2243,1.10000,0.90000,1.10000,0.90000
   123,'DIDSBURY    ', 138.0000,1,  39,  99,  17,0.99922, -22.5596,1.10000,0.90000,1.10000,0.90000
   124,'HARMATT7    ', 138.0000,1,  39,  99,  17,0.99788, -22.6129,1.10000,0.90000,1.10000,0.90000
   125,'YASAA7      ', 138.0000,1,  60,  99,  17,1.03021, -15.0153,1.10000,0.90000,1.10000,0.90000
   126,'SHELL H7    ', 138.0000,1,  39,  99,  17,0.99798, -22.6181,1.10000,0.90000,1.10000,0.90000
   127,'BEDDING2    ', 138.0000,1,   6,  99,   3,1.02873, -21.9905,1.10000,0.90000,1.10000,0.90000
   128,'ELLERSLI    ', 240.0000,1,  60,  99,  17,1.03664, -10.5845,1.10000,0.90000,1.10000,0.90000
   130,'SUND#3GN    ',  20.0000,2,  40,  99,  17,1.03000,  -5.9305,1.10000,0.90000,1.10000,0.90000
   131,'SUNDANA8    ',  69.0000,1,  40,  99,  17,1.02360, -13.1897,1.10000,0.90000,1.10000,0.90000
   132,'SUNDANC7    ', 138.0000,1,  40,  99,  17,1.02949, -11.3420,1.10000,0.90000,1.10000,0.90000
   133,'WABAMUN4    ', 240.0000,1,  40,  99,  17,1.07124, -12.5096,1.10000,0.90000,1.10000,0.90000
   134,'WABAMUN7    ', 138.0000,1,  40,  99,  17,1.03422, -14.7288,1.10000,0.90000,1.10000,0.90000
   135,'SUNDANC4    ', 240.0000,1,  40,  99,  17,1.08270, -11.5901,1.10000,0.90000,1.10000,0.90000
   136,'E EDMON4    ', 240.0000,1,  60,  99,  17,1.03065, -11.5823,1.10000,0.90000,1.10000,0.90000
   137,'N CALDE4    ', 240.0000,1,  60,  99,  17,1.04438, -13.3930,1.10000,0.90000,1.10000,0.90000
   138,'N BARRH4    ', 240.0000,1,  40,  99,  17,1.09934, -15.6791,1.10000,0.90000,1.10000,0.90000
   141,'DALEHUR7    ', 138.0000,1,  29,  99,  17,1.00616, -18.1459,1.10000,0.90000,1.10000,0.90000
   142,'KINGMAN7    ', 138.0000,1,  31,  99,  17,1.02533, -18.0475,1.10000,0.90000,1.10000,0.90000
   144,'ALGAR  7    ', 138.0000,1,  61,  99,   1,1.06379, -12.7206,1.10000,0.90000,1.10000,0.90000
   147,'GAETZ  4    ', 240.0000,1,  35,  99,  17,1.04197, -17.2056,1.10000,0.90000,1.10000,0.90000
   148,'GAETZ  7    ', 138.0000,1,  35,  99,  17,1.03229, -18.8850,1.10000,0.90000,1.10000,0.90000
   150,'WILLESD4    ', 240.0000,1,  30,  99,  17,1.05672, -17.1541,1.10000,0.90000,1.10000,0.90000
   151,'BRAZ#1 9    ',  13.8000,2,  30,  99,  17,0.98000, -17.2952,1.10000,0.90000,1.10000,0.90000
   152,'RED DEE4    ', 240.0000,1,  35,  99,  17,1.05162, -17.3239,1.10000,0.90000,1.10000,0.90000
   153,'BRAZEAU4    ', 240.0000,1,  30,  99,  17,1.05236, -17.5747,1.10000,0.90000,1.10000,0.90000
   154,'BRAZ#2 9    ',  13.8000,2,  30,  99,  17,0.98205, -17.5747,1.10000,0.90000,1.10000,0.90000
   155,'BENALTO4    ', 240.0000,1,  35,  99,  17,1.06203, -16.0961,1.10000,0.90000,1.10000,0.90000
   156,'E CROSS4    ', 240.0000,1,  57,  99,  17,1.04340, -19.3324,1.10000,0.90000,1.10000,0.90000
   157,'COCHIN 8    ',  69.0000,1,  32,  99, 241,1.06039, -23.3526,1.10000,0.90000,1.10000,0.90000
   158,'LANGDON2    ', 500.0000,1,   6,  99,  17,1.07676, -16.2187,1.10000,0.90000,1.10000,0.90000
   159,'LANGDON4    ', 240.0000,1,   6,  99,  17,1.05400, -18.3312,1.10000,0.90000,1.10000,0.90000
   160,'JANET  4    ', 240.0000,1,   6,  99,  17,1.04604, -19.6852,1.10000,0.90000,1.10000,0.90000
   161,'SARCEE 4    ', 240.0000,1,   6,  99,  17,1.04161, -20.9504,1.10000,0.90000,1.10000,0.90000
   162,'E CALGAR    ', 240.0000,1,   6,  99,  17,1.03380, -20.5665,1.10000,0.90000,1.10000,0.90000
   163,'SAGITAW4    ', 240.0000,1,  26,  99,  17,1.06154, -18.3763,1.10000,0.90000,1.10000,0.90000
   164,'SAGITAW7    ', 138.0000,1,  26,  99,  17,1.02978, -19.6626,1.10000,0.90000,1.10000,0.90000
   165,'PEIGAN 4    ', 240.0000,1,  53,  99, 191,1.05613, -18.0173,1.10000,0.90000,1.10000,0.90000
   166,'PEIGAN 7    ', 138.0000,1,  53,  99, 191,1.02027, -15.9094,1.10000,0.90000,1.10000,0.90000
   167,'N LETHB4    ', 240.0000,1,  54,  99,  17,1.05847, -19.2904,1.10000,0.90000,1.10000,0.90000
   168,'SUNSHIN8    ',  69.0000,1,  44,  99,  17,0.98512, -29.0976,1.10000,0.90000,1.10000,0.90000
   169,'CAN CEM7    ', 138.0000,1,  44,  99,  17,1.02741, -23.8876,1.10000,0.90000,1.10000,0.90000
   170,'COCHRAN7    ', 138.0000,1,  44,  99,  17,1.00623, -24.2320,1.10000,0.90000,1.10000,0.90000
   171,'SEEBE  7    ', 138.0000,1,  44,  99, 191,1.02649, -23.5102,1.10000,0.90000,1.10000,0.90000
   172,'HORS GEN    ',  12.0000,2,  44,  99,  17,1.02500, -21.1670,1.10000,0.90000,1.10000,0.90000
   173,'BRETV A7    ', 138.0000,1,  60,  99,  17,1.02988, -15.0309,1.10000,0.90000,1.10000,0.90000
   174,'SPRAY G1    ',  13.2000,2,  44,  99,  17,1.04663, -21.2259,1.10000,0.90000,1.10000,0.90000
   175,'CASCADE7    ', 138.0000,1,  44,  99, 194,1.02941, -24.3710,1.10000,0.90000,1.10000,0.90000
   176,'CASCADE9    ',  13.2000,2,  44,  99, 194,1.04393, -24.4373,1.10000,0.90000,1.10000,0.90000
   177,'AIRDRIE     ', 138.0000,1,  57,  99,  17,1.01856, -21.8192,1.10000,0.90000,1.10000,0.90000
   178,'BANFF  8    ',  69.0000,1,  44,  99,  17,0.98843, -28.9105,1.10000,0.90000,1.10000,0.90000
   179,'MARIANA7    ', 138.0000,1,  61,  99,   1,1.06854, -13.1554,1.10000,0.90000,1.10000,0.90000
   180,'GHOST  7    ', 138.0000,1,  44,  99,  17,1.01371, -23.8547,1.10000,0.90000,1.10000,0.90000
   181,'GHOST A9    ',  13.2000,2,  44,  99,  17,1.00000, -23.1775,1.10000,0.90000,1.10000,0.90000
   183,'BEARSPWB    ',  13.2000,2,  44,  99,  17,1.04888, -22.9748,1.10000,0.90000,1.10000,0.90000
   184,'BEARSPAW    ', 138.0000,1,  44,  99,  17,1.01238, -23.7258,1.10000,0.90000,1.10000,0.90000
   187,'BEDDING1    ', 240.0000,1,   6,  99,   3,1.03509, -20.1604,1.10000,0.90000,1.10000,0.90000
   188,'ANG COCA    ',  25.0000,1,  44,  99,  17,1.04617, -25.5633,1.10000,0.90000,1.10000,0.90000
   189,'ANG COCB    ',  13.8000,2,  44,  99,  17,0.99829, -27.9896,1.10000,0.90000,1.10000,0.90000
   190,'SPRAY G2    ',  13.2000,2,  44,  99,  17,1.03286, -23.8100,1.10000,0.90000,1.10000,0.90000
   191,'ANG COCH    ', 138.0000,1,  44,  99,  17,1.00466, -24.4301,1.10000,0.90000,1.10000,0.90000
   192,'NELSON L    ', 138.0000,1,  31,  99,  17,1.01510, -18.8085,1.10000,0.90000,1.10000,0.90000
   193,'KANANAS7    ', 138.0000,1,  44,  99,  17,1.02716, -23.4747,1.10000,0.90000,1.10000,0.90000
   194,'LAKE LO8    ',  69.0000,1,  44,  99,  17,0.96308, -29.5497,1.10000,0.90000,1.10000,0.90000
   195,'RUNDLE S    ', 138.0000,1,  44,  99,  17,1.03268, -23.8924,1.10000,0.90000,1.10000,0.90000
   196,'KANANAS9    ',  12.0000,2,  44,  99,  17,1.04786, -21.1737,1.10000,0.90000,1.10000,0.90000
   197,'RUNDLE G    ',  13.8000,2,  44,  99,  17,1.04761, -22.3145,1.10000,0.90000,1.10000,0.90000
   198,'BALZAC 7    ', 138.0000,1,   6,  99,  17,1.02887, -21.9714,1.10000,0.90000,1.10000,0.90000
   199,'SHELL J7    ', 138.0000,1,  44,  99,  17,1.01133, -23.8849,1.10000,0.90000,1.10000,0.90000
   201,'JUMPPND7    ', 138.0000,1,  44,  99,  17,1.01955, -23.5682,1.10000,0.90000,1.10000,0.90000
   202,'SARCEE 7    ', 138.0000,1,   6,  99,  17,1.01525, -23.1043,1.10000,0.90000,1.10000,0.90000
   203,'SARCEE C    ',  13.8000,1,   6,  99,  17,1.05454, -23.1713,1.10000,0.90000,1.10000,0.90000
   204,'MCMILLA4    ', 240.0000,1,  61,  99,   1,1.10510, -12.5221,1.10000,0.90000,1.10000,0.90000
   205,'AMOCO R7    ', 138.0000,1,  38,  99,  17,0.98879, -21.9727,1.10000,0.90000,1.10000,0.90000
   207,'JANET  7    ', 138.0000,1,   6,  99,  17,1.01788, -22.2569,1.10000,0.90000,1.10000,0.90000
   208,'ENMX2S 7    ', 138.0000,1,   6,  99,   3,1.01552, -23.3798,1.10000,0.90000,1.10000,0.90000
   209,'BRETONA1    ', 138.0000,1,  60,  99,  17,1.02746, -15.6872,1.10000,0.90000,1.10000,0.90000
   211,'MOUNT A7    ', 138.0000,1,  44,  99,  17,1.03091, -23.6969,1.10000,0.90000,1.10000,0.90000
   213,'HAIGRIVE    ', 138.0000,1,  17,  99,   1,1.10123, -28.3853,1.10000,0.90000,1.10000,0.90000
   214,'POCATEA9    ',  13.8000,2,  44,  99,  17,1.00605, -22.1612,1.10000,0.90000,1.10000,0.90000
   215,'TEX.W.P7    ', 138.0000,1,  30,  99,  17,1.00965, -19.5606,1.10000,0.90000,1.10000,0.90000
   216,'BARRIER7    ', 138.0000,1,  44,  99,  17,1.02870, -23.5712,1.10000,0.90000,1.10000,0.90000
   218,'BLACKMUD    ', 138.0000,1,  60,  99,  17,1.01925, -17.2392,1.10000,0.90000,1.10000,0.90000
   219,'KILLARN7    ', 138.0000,1,  37,  99,  17,1.01099, -26.3704,1.10000,0.90000,1.10000,0.90000
   220,'HAYTER 7    ', 138.0000,1,  37,  99,  17,0.99733, -26.9376,1.10000,0.90000,1.10000,0.90000
   221,'CRR-W1      ', 240.0000,1,  53,  99,  58,1.04880, -17.4752,1.10000,0.90000,1.10000,0.90000
   222,'BARRIER9    ',  13.2000,2,  44,  99,  17,1.03000, -22.2854,1.10000,0.90000,1.10000,0.90000
   223,'PINCHER8    ',  69.0000,1,  53,  99,  17,1.02328, -16.8297,1.10000,0.90000,1.10000,0.90000
   224,'PINCHER7    ', 138.0000,1,  53,  99,  17,1.05291, -16.5607,1.10000,0.90000,1.10000,0.90000
   225,'WARE JCT    ', 240.0000,1,  47,  99,  17,1.07530, -20.3465,1.10000,0.90000,1.10000,0.90000
   226,'DRYWOOD8    ',  69.0000,1,  55,  99,  17,1.02813, -17.8128,1.10000,0.90000,1.10000,0.90000
   227,'SHELL WA    ',  69.0000,1,  55,  99,  17,1.01345, -18.0377,1.10000,0.90000,1.10000,0.90000
   228,'YARROW 8    ',  69.0000,1,  55,  99,  17,1.02803, -17.8154,1.10000,0.90000,1.10000,0.90000
   229,'170AL-TA    ', 138.0000,1,  53,  99,  17,1.04973, -16.5366,1.10000,0.90000,1.10000,0.90000
...
0 / END OF BUS DATA, BEGIN LOAD DATA
    14,'99',1,  27,  99,     0.062,     0.031,     0.000,     0.000,     0.000,     0.000,   4,1,0
    33,'99',1,  30,  99,     4.305,     2.156,     0.000,     0.000,     0.000,     0.000,  17,1,0
    43,'37',1,  33,  37,   171.217,    85.608,     0.000,     0.000,     0.000,     0.000,  29,1,0
    43,'99',1,  33,  99,     5.155,     2.582,     0.000,     0.000,     0.000,     0.000,  29,1,0
    50,'37',1,  33,  37,    15.592,     7.796,     0.000,     0.000,     0.000,     0.000, 211,1,0
    50,'99',1,  33,  99,     8.283,     4.148,     0.000,     0.000,     0.000,     0.000, 211,1,0
    61,'37',1,  33,  37,    32.316,    16.158,     0.000,     0.000,     0.000,     0.000, 191,1,0
    61,'99',1,  33,  99,    33.172,    16.613,     0.000,     0.000,     0.000,     0.000, 191,1,0
    79,'99',1,  32,  99,     0.001,     0.001,     0.000,     0.000,     0.000,     0.000,  17,1,0
    80,'99',1,  30,  99,     0.051,     0.026,     0.000,     0.000,     0.000,     0.000,  17,1,0
   127,'99',1,   6,  99,     7.255,     3.633,     0.000,     0.000,     0.000,     0.000,   3,1,0
   130,'36',1,  40,  36,    18.900,     9.500,     0.000,     0.000,     0.000,     0.000,  17,1,0
   165,'99',1,  53,  99,     0.000,     0.000,     0.000,     0.000,     0.000,     0.000, 191,1,0
   167,'99',1,  54,  99,     0.001,     0.000,     0.000,     0.000,     0.000,     0.000,  17,1,0
   172,'99',1,  44,  99,     0.001,     0.000,     0.000,     0.000,     0.000,     0.000,  17,1,0
   176,'99',1,  44,  99,     0.384,     0.193,     0.000,     0.000,     0.000,     0.000, 194,1,0
   180,'99',1,  44,  99,     4.669,     2.339,     0.000,     0.000,     0.000,     0.000,  17,1,0
   183,'99',1,  44,  99,     0.001,     0.001,     0.000,     0.000,     0.000,     0.000,  17,1,0
   188,'99',1,  44,  99,     5.628,     2.819,     0.000,     0.000,     0.000,     0.000,  17,1,0
   189,'99',1,  44,  99,     9.879,     4.947,     0.000,     0.000,     0.000,     0.000,  17,1,0
   197,'99',1,  44,  99,     0.149,     0.075,     0.000,     0.000,     0.000,     0.000,  17,1,0
   199,'99',1,  44,  99,     5.310,     2.659,     0.000,     0.000,     0.000,     0.000,  17,1,0
   214,'99',1,  44,  99,     0.095,     0.048,     0.000,     0.000,     0.000,     0.000,  17,1,0
   222,'99',1,  44,  99,     0.057,     0.029,     0.000,     0.000,     0.000,     0.000,  17,1,0
   234,'99',1,  53,  99,     0.065,     0.033,     0.000,     0.000,     0.000,     0.000,  44,1,0
   239,'99',1,  46,  99,     5.009,     2.508,     0.000,     0.000,     0.000,     0.000,  17,1,0
   248,'37',1,  28,  37,    25.121,    12.560,     0.000,     0.000,     0.000,     0.000,  36,1,0
   255,'99',1,  53,  99,     0.043,     0.022,     0.000,     0.000,     0.000,     0.000,  17,1,0
   265,'99',1,  53,  99,     0.043,     0.022,     0.000,     0.000,     0.000,     0.000,  17,1,0
   268,'99',1,  48,  99,     4.322,     2.164,     0.000,     0.000,     0.000,     0.000,  17,1,0
   271,'99',1,   4,  99,     0.001,     0.000,     0.000,     0.000,     0.000,     0.000,  17,1,0
   274,'99',1,  52,  99,     9.755,     4.885,     0.000,     0.000,     0.000,     0.000,  17,1,0
   287,'99',1,  48,  99,     6.175,     3.092,     0.000,     0.000,     0.000,     0.000,  17,1,0
   288,'99',1,  48,  99,     3.087,     1.546,     0.000,     0.000,     0.000,     0.000,  17,1,0
   289,'99',1,  48,  99,     4.013,     2.010,     0.000,     0.000,     0.000,     0.000,  17,1,0
   296,'99',1,  53,  99,     0.000,     0.000,     0.000,     0.000,     0.000,     0.000,  17,1,0
   305,'99',1,  27,  99,     9.277,     4.646,     0.000,     0.000,     0.000,     0.000,  17,1,0
   330,'99',1,  30,  99,    13.748,     6.885,     0.000,     0.000,     0.000,     0.000,  17,1,0
   342,'36',1,  40,  36,    19.600,     9.800,     0.000,     0.000,     0.000,     0.000,  17,1,0
   345,'36',1,  40,  36,    20.200,    10.100,     0.000,     0.000,     0.000,     0.000,  17,1,0
   348,'99',1,  61,  99,     0.677,     0.339,     0.000,     0.000,     0.000,     0.000,  17,1,0
   350,'36',1,  40,  36,    26.400,    13.200,     0.000,     0.000,     0.000,     0.000,  17,1,0
   375,'99',1,  44,  99,     0.142,     0.071,     0.000,     0.000,     0.000,     0.000,  17,1,0
   380,'99',1,  44,  99,     1.668,     0.835,     0.000,     0.000,     0.000,     0.000,  17,1,0
   383,'37',1,  35,  37,    55.880,    27.940,     0.000,     0.000,     0.000,     0.000,  17,1,0
   383,'99',1,  35,  99,    64.452,    32.277,     0.000,     0.000,     0.000,     0.000,  17,1,0
   403,'36',1,  40,  36,    39.800,    19.900,     0.000,     0.000,     0.000,     0.000,  17,1,0
   405,'36',1,  61,  36,     3.000,     1.500,     0.000,     0.000,     0.000,     0.000, 251,1,0
   405,'37',1,  61,  37,     7.800,     3.900,     0.000,     0.000,     0.000,     0.000, 251,1,0
   407,'99',1,  54,  99,     0.021,     0.011,     0.000,     0.000,     0.000,     0.000,  17,1,0
   408,'99',1,  26,  99,     0.073,     0.037,     0.000,     0.000,     0.000,     0.000,  17,1,0
   414,'99',1,  55,  99,     0.017,     0.009,     0.000,     0.000,     0.000,     0.000,  17,1,0
   422,'35',1,  40,  35,    16.842,     0.000,     0.000,     0.000,     0.000,     0.000,  17,1,0
   422,'36',1,  40,  36,     9.800,     4.900,     0.000,     0.000,     0.000,     0.000,  17,1,0
   424,'36',1,  40,  36,    21.500,    10.800,     0.000,     0.000,     0.000,     0.000,  17,1,0
   440,'99',1,  31,  99,     0.004,     0.002,     0.000,     0.000,     0.000,     0.000,  17,1,0
   478,'99',1,  44,  99,    14.454,     7.238,     0.000,     0.000,     0.000,     0.000,  17,1,0
   479,'99',1,  44,  99,     0.149,     0.075,     0.000,     0.000,     0.000,     0.000,  17,1,0
   490,'36',1,  40,  36,    38.100,    19.100,     0.000,     0.000,     0.000,     0.000,   5,1,0
   491,'36',1,  40,  36,    30.800,    15.400,     0.000,     0.000,     0.000,     0.000,   5,1,0
   492,'36',1,  40,  36,    27.900,    14.000,     0.000,     0.000,     0.000,     0.000,   5,1,0
   666,'99',1,  58,  99,     0.345,     0.173,     0.000,     0.000,     0.000,     0.000,   1,1,0
   680,'35',1,   4,  35,     9.552,     0.000,     0.000,     0.000,     0.000,     0.000,  17,1,0
   680,'37',1,   4,  37,    82.005,    41.003,     0.000,     0.000,     0.000,     0.000,  17,1,0
  1029,'99',1,  17,  99,    10.468,     5.242,     0.000,     0.000,     0.000,     0.000,   1,1,0
  1031,'99',1,  17,  99,     5.850,     2.930,     0.000,     0.000,     0.000,     0.000,   1,1,0
  1032,'99',1,  17,  99,    14.471,     7.247,     0.000,     0.000,     0.000,     0.000,   1,1,0
  1035,'99',1,  17,  99,     0.032,     0.016,     0.000,     0.000,     0.000,     0.000,  21,1,0
  1037,'35',1,  17,  35,     1.741,     0.000,     0.000,     0.000,     0.000,     0.000,  21,1,0
  1037,'99',1,  17,  99,     0.005,     0.003,     0.000,     0.000,     0.000,     0.000,  21,1,0
  1050,'99',1,  19,  99,     2.147,     1.075,     0.000,     0.000,     0.000,     0.000,   1,1,0
  1089,'34',1,  19,  34,    27.000,    12.000,     0.000,     0.000,     0.000,     0.000,  33,1,0
  1101,'37',1,  20,  37,     3.655,     1.828,     0.000,     0.000,     0.000,     0.000,  30,1,0
  1146,'37',1,  20,  37,    13.520,     6.760,     0.000,     0.000,     0.000,     0.000,  39,1,0
  1148,'36',1,  22,  36,     9.000,     4.500,     0.000,     0.000,     0.000,     0.000,   1,1,0
  1167,'99',1,  23,  99,     0.021,     0.011,     0.000,     0.000,     0.000,     0.000,   1,1,0
  1168,'99',1,  23,  99,     0.028,     0.014,     0.000,     0.000,     0.000,     0.000,   1,1,0
  1171,'99',1,  23,  99,     0.292,     0.146,     0.000,     0.000,     0.000,     0.000,   1,1,0
  1173,'35',1,  23,  35,     1.973,     0.000,     0.000,     0.000,     0.000,     0.000,   1,1,0
  1173,'99',1,  23,  99,     0.292,     0.146,     0.000,     0.000,     0.000,     0.000,   1,1,0
  1205,'35',1,  59,  35,    15.770,     0.000,     0.000,     0.000,     0.000,     0.000,   9,1,0
  1205,'37',1,  59,  37,   391.505,   195.752,     0.000,     0.000,     0.000,     0.000,   9,1,0
  1208,'37',1,  59,  37,   354.750,   177.375,     0.000,     0.000,     0.000,     0.000,  10,1,0
  1224,'99',1,  59,  99,     6.117,     3.063,     0.000,     0.000,     0.000,     0.000,   1,1,0
  1231,'99',1,  21,  99,    21.333,    10.684,     0.000,     0.000,     0.000,     0.000,   1,1,0
  1232,'99',1,  21,  99,    21.333,    10.684,     0.000,     0.000,     0.000,     0.000,   1,1,0
  1236,'35',1,  59,  35,    31.093,     0.000,     0.000,     0.000,     0.000,     0.000,  40,1,0
  1236,'37',1,  59,  37,    18.911,     9.456,     0.000,     0.000,     0.000,     0.000,  40,1,0
  1236,'99',1,  59,  99,     0.345,     0.173,     0.000,     0.000,     0.000,     0.000,  40,1,0
  1241,'37',1,  61,  37,    81.392,    40.696,     0.000,     0.000,     0.000,     0.000,  99,1,0
  1251,'37',1,  58,  37,    61.964,    30.982,     0.000,     0.000,     0.000,     0.000, 261,1,0
  1251,'99',1,  58,  99,     8.306,     4.160,     0.000,     0.000,     0.000,     0.000, 261,1,0
  1262,'37',1,  58,  37,    19.568,     9.784,     0.000,     0.000,     0.000,     0.000, 261,1,0
  1262,'99',1,  58,  99,     1.858,     0.930,     0.000,     0.000,     0.000,     0.000, 261,1,0
  1274,'37',1,  58,  37,     9.175,     4.588,     0.000,     0.000,     0.000,     0.000,   1,1,0
  1289,'37',1,  59,  37,    49.857,    24.929,     0.000,     0.000,     0.000,     0.000, 481,1,0
  1301,'36',1,  28,  36,     2.600,     1.400,     0.000,     0.000,     0.000,     0.000,  63,1,0
  1301,'37',1,  28,  37,    34.224,    17.112,     0.000,     0.000,     0.000,     0.000,  63,1,0
  1301,'99',1,  28,  99,     4.529,     2.268,     0.000,     0.000,     0.000,     0.000,  63,1,0
  1302,'37',1,  28,  37,    69.305,    34.652,     0.000,     0.000,     0.000,     0.000,   1,1,0
  1302,'99',1,  28,  99,     2.117,     1.060,     0.000,     0.000,     0.000,     0.000,   1,1,0
  1471,'99',1,  42,  99,     7.857,     3.935,     0.000,     0.000,     0.000,     0.000,   1,1,0
  1473,'34',1,  48,  34,   -18.820,     0.000,     0.000,     0.000,     0.000,     0.000,   1,1,0
  1474,'99',1,  42,  99,     8.275,     4.144,     0.000,     0.000,     0.000,     0.000,   1,1,0
  1482,'35',1,  43,  35,    18.737,     0.000,     0.000,     0.000,     0.000,     0.000,   1,1,0
  1482,'36',1,  43,  36,     5.400,     2.700,     0.000,     0.000,     0.000,     0.000,   1,1,0
  1487,'36',1,  43,  36,     8.400,     4.200,     0.000,     0.000,     0.000,     0.000,   1,1,0
  1495,'36',1,  36,  36,     6.700,     3.300,     0.000,     0.000,     0.000,     0.000,   1,1,0
  1496,'36',1,  36,  36,     8.200,     4.100,     0.000,     0.000,     0.000,     0.000,   1,1,0
  1497,'35',1,  36,  35,    49.795,     0.000,     0.000,     0.000,     0.000,     0.000,   1,1,0
  1497,'36',1,  36,  36,    12.700,     6.400,     0.000,     0.000,     0.000,     0.000,   1,1,0
  1503,'34',1,  15,  34,    10.000,     3.300,     0.000,     0.000,     0.000,     0.000,   2,1,0
  1504,'34',1,  15,  34,    10.000,     3.300,     0.000,     0.000,     0.000,     0.000,   2,1,0
  1505,'34',1,  15,  34,    10.000,     3.300,     0.000,     0.000,     0.000,     0.000,   2,1,0
  1506,'34',1,  15,  34,    10.000,     3.300,     0.000,     0.000,     0.000,     0.000,   2,1,0
  1681,'99',1,  59,  99,    21.120,    10.577,     0.000,     0.000,     0.000,     0.000,  36,1,0
  1683,'99',1,  59,  99,     5.760,     2.885,     0.000,     0.000,     0.000,     0.000,  36,1,0
  1684,'99',1,  59,  99,    21.120,    10.577,     0.000,     0.000,     0.000,     0.000,  36,1,0
  2053,'99',1,  48,  99,     2.875,     1.440,     0.000,     0.000,     0.000,     0.000,  17,1,0
  2060,'99',1,  33,  99,    10.178,     5.097,     0.000,     0.000,     0.000,     0.000,  17,1,0
  2062,'99',1,  33,  99,     7.185,     3.598,     0.000,     0.000,     0.000,     0.000,  17,1,0
  2063,'99',1,  33,  99,     7.379,     3.695,     0.000,     0.000,     0.000,     0.000,  17,1,0
  2085,'99',1,  26,  99,    24.433,    12.236,     0.000,     0.000,     0.000,     0.000,  17,1,0
  2089,'99',1,  60,  99,    12.322,     6.171,     0.000,     0.000,     0.000,     0.000,  17,1,0
  2103,'99',1,  34,  99,     1.805,     0.904,     0.000,     0.000,     0.000,     0.000,  17,1,0
  2125,'99',1,  60,  99,     7.212,     3.612,     0.000,     0.000,     0.000,     0.000,  17,1,0
  2169,'99',1,  44,  99,     4.766,     2.387,     0.000,     0.000,     0.000,     0.000,  17,1,0
  2173,'99',1,  60,  99,     4.336,     2.172,     0.000,     0.000,     0.000,     0.000,  17,1,0
  2198,'99',1,   6,  99,     6.148,     3.079,     0.000,     0.000,     0.000,     0.000,  17,1,0
  2208,'99',1,   6,  99,     7.765,     3.889,     0.000,     0.000,     0.000,     0.000,   3,1,0
  2218,'99',1,  60,  99,     5.508,     2.758,     0.000,     0.000,     0.000,     0.000,  17,1,0
  2230,'99',1,  53,  99,     0.005,     0.003,     0.000,     0.000,     0.000,     0.000,   1,1,0
  2231,'99',1,  55,  99,     1.556,     0.780,     0.000,     0.000,     0.000,     0.000,  17,1,0
  2242,'99',1,  46,  99,    11.739,     5.879,     0.000,     0.000,     0.000,     0.000,  17,1,0
  2260,'99',1,  48,  99,    11.857,     5.938,     0.000,     0.000,     0.000,     0.000,  17,1,0
  2266,'99',1,  48,  99,     3.269,     1.637,     0.000,     0.000,     0.000,     0.000,  17,1,0
  2269,'99',1,  52,  99,     6.861,     3.436,     0.000,     0.000,     0.000,     0.000,  17,1,0
  2284,'99',1,   4,  99,     2.668,     1.336,     0.000,     0.000,     0.000,     0.000,  17,1,0
  2297,'99',1,  32,  99,     7.856,     3.934,     0.000,     0.000,     0.000,     0.000,  17,1,0
  2298,'99',1,  26,  99,    33.446,    16.750,     0.000,     0.000,     0.000,     0.000,  17,1,0
  2311,'99',1,  60,  99,    14.848,     7.436,     0.000,     0.000,     0.000,     0.000,  17,1,0
  2315,'99',1,  45,  99,     5.198,     2.603,     0.000,     0.000,     0.000,     0.000,  17,1,0
  2340,'99',1,  45,  99,     5.806,     2.908,     0.000,     0.000,     0.000,     0.000,  17,1,0
  2344,'99',1,  48,  99,     2.645,     1.325,     0.000,     0.000,     0.000,     0.000,  17,1,0
  2357,'99',1,  60,  99,     8.080,     4.047,     0.000,     0.000,     0.000,     0.000,  17,1,0
  2364,'99',1,  40,  99,     8.790,     4.402,     0.000,     0.000,     0.000,     0.000,  17,1,0
  2366,'99',1,  60,  99,     7.735,     3.874,     0.000,     0.000,     0.000,     0.000,  17,1,0
  2368,'99',1,  29,  99,     5.498,     2.753,     0.000,     0.000,     0.000,     0.000,  17,1,0
  2369,'99',1,  61,  99,    11.259,     5.638,     0.000,     0.000,     0.000,     0.000,  17,1,0
  2370,'99',1,  61,  99,    14.925,     7.474,     0.000,     0.000,     0.000,     0.000,  17,1,0
  2373,'99',1,  32,  99,     3.674,     1.840,     0.000,     0.000,     0.000,     0.000,  17,1,0
  2384,'99',1,  35,  99,    30.670,    15.360,     0.000,     0.000,     0.000,     0.000,  17,1,0
  2389,'99',1,  54,  99,     0.032,     0.016,     0.000,     0.000,     0.000,     0.000,  10,1,0
  2392,'35',1,  27,  35,     0.277,     0.000,     0.000,     0.000,     0.000,     0.000, 301,1,0
  2392,'37',1,  27,  37,    47.779,    23.890,     0.000,     0.000,     0.000,     0.000, 301,1,0
  2397,'99',1,  29,  99,    11.739,     5.879,     0.000,     0.000,     0.000,     0.000,  17,1,0
  2399,'99',1,  47,  99,     9.377,     4.696,     0.000,     0.000,     0.000,     0.000,  17,1,0
  2402,'99',1,  53,  99,     0.031,     0.015,     0.000,     0.000,     0.000,     0.000, 192,1,0
  2415,'99',1,  29,  99,     3.447,     1.726,     0.000,     0.000,     0.000,     0.000,  17,1,0
  2417,'99',1,  27,  99,    10.205,     5.110,     0.000,     0.000,     0.000,     0.000,  17,1,0
  2503,'99',1,  57,  99,     0.102,     0.051,     0.000,     0.000,     0.000,     0.000,   3,1,0
  2514,'99',1,  60,  99,     3.284,     1.644,     0.000,     0.000,     0.000,     0.000,   5,1,0
  2515,'99',1,  60,  99,     9.648,     4.832,     0.000,     0.000,     0.000,     0.000,  17,1,0
  2550,'99',1,   6,  99,     8.981,     4.497,     0.000,     0.000,     0.000,     0.000,   3,1,0
  2551,'99',1,   6,  99,     8.709,     4.361,     0.000,     0.000,     0.000,     0.000,   3,1,0
  2555,'99',1,   6,  99,    10.626,     5.322,     0.000,     0.000,     0.000,     0.000,   3,1,0
  2556,'99',1,   6,  99,     2.299,     1.151,     0.000,     0.000,     0.000,     0.000,   3,1,0
  2559,'99',1,   6,  99,     4.997,     2.502,     0.000,     0.000,     0.000,     0.000,   3,1,0
  2561,'99',1,   6,  99,    10.148,     5.082,     0.000,     0.000,     0.000,     0.000,   3,1,0
  2564,'99',1,   6,  99,     2.554,     1.279,     0.000,     0.000,     0.000,     0.000,   3,1,0
  2567,'99',1,   6,  99,    13.156,     6.588,     0.000,     0.000,     0.000,     0.000,   3,1,0
  2568,'99',1,   6,  99,     6.011,     3.010,     0.000,     0.000,     0.000,     0.000,   3,1,0
  2571,'99',1,   6,  99,     2.437,     1.221,     0.000,     0.000,     0.000,     0.000,   3,1,0
  2572,'99',1,   6,  99,     8.361,     4.187,     0.000,     0.000,     0.000,     0.000,   3,1,0
  2573,'99',1,   6,  99,     3.976,     1.991,     0.000,     0.000,     0.000,     0.000,   3,1,0
  2576,'99',1,   6,  99,    14.952,     7.488,     0.000,     0.000,     0.000,     0.000,   3,1,0
  2578,'99',1,   6,  99,     1.135,     0.568,     0.000,     0.000,     0.000,     0.000,   3,1,0
  2579,'99',1,   6,  99,     6.505,     3.258,     0.000,     0.000,     0.000,     0.000,   3,1,0
  2582,'99',1,   6,  99,     3.177,     1.591,     0.000,     0.000,     0.000,     0.000,   3,1,0
  2585,'99',1,   6,  99,     6.935,     3.473,     0.000,     0.000,     0.000,     0.000,   3,1,0
  2588,'99',1,   6,  99,    11.266,     5.642,     0.000,     0.000,     0.000,     0.000,   3,1,0
  2589,'99',1,   6,  99,     7.702,     3.857,     0.000,     0.000,     0.000,     0.000,   3,1,0
  2598,'99',1,   6,  99,    12.259,     6.139,     0.000,     0.000,     0.000,     0.000,   3,1,0
  2605,'99',1,  29,  99,     1.182,     0.592,     0.000,     0.000,     0.000,     0.000,  17,1,0
  2621,'99',1,  42,  99,     0.016,     0.008,     0.000,     0.000,     0.000,     0.000, 371,1,0
  2622,'99',1,  42,  99,     0.016,     0.008,     0.000,     0.000,     0.000,     0.000, 371,1,0
  2623,'99',1,  42,  99,     0.012,     0.006,     0.000,     0.000,     0.000,     0.000, 371,1,0
  2624,'99',1,  42,  99,     0.016,     0.008,     0.000,     0.000,     0.000,     0.000, 371,1,0
  2625,'99',1,  42,  99,     0.020,     0.010,     0.000,     0.000,     0.000,     0.000, 371,1,0
  2690,'99',1,  54,  99,     9.535,     4.775,     0.000,     0.000,     0.000,     0.000,  17,1,0
  2716,'99',1,  42,  99,     0.916,     0.459,     0.000,     0.000,     0.000,     0.000, 391,1,0
  2763,'99',1,  53,  99,     0.142,     0.071,     0.000,     0.000,     0.000,     0.000, 190,1,0
  2779,'99',1,  40,  99,     1.781,     0.892,     0.000,     0.000,     0.000,     0.000,  17,1,0
  2780,'99',1,  35,  99,     3.780,     1.893,     0.000,     0.000,     0.000,     0.000,  17,1,0
  2834,'99',1,  33,  99,    16.666,     8.346,     0.000,     0.000,     0.000,     0.000,  40,1,0
  2858,'99',1,  27,  99,     3.700,     1.853,     0.000,     0.000,     0.000,     0.000, 321,1,0
  2901,'99',1,  53,  99,     0.021,     0.010,     0.000,     0.000,     0.000,     0.000,  44,1,0
  2920,'99',1,  61,  99,     4.360,     2.184,     0.000,     0.000,     0.000,     0.000,  17,1,0
  2921,'99',1,  61,  99,     4.360,     2.184,     0.000,     0.000,     0.000,     0.000,  17,1,0
  2934,'99',1,  33,  99,    16.666,     8.346,     0.000,     0.000,     0.000,     0.000,  40,1,0
...
0 / END OF LOAD DATA, BEGIN FIXED SHUNT DATA
  1089,'1 ',0,     0.000,    36.000
0 / END OF FIXED SHUNT DATA, BEGIN GENERATOR DATA
    14,'1 ',    12.311,    -3.938,     8.200,    -5.600,1.02500,     0,    21.000, 0.00000E+0, 1.30000E-1, 0.00000E+0, 0.00000E+0,1.00000,1,  100.0,    17.000,     6.000,   4,1.0000
    33,'1 ',     0.000,     0.000,     4.100,    -2.800,1.02200,     0,     9.300, 2.00000E-3, 2.10000E-1, 0.00000E+0, 0.00000E+0,1.00000,0,  100.0,     8.400,    -0.500,  17,1.0000
    33,'2 ',     0.000,     0.000,     4.100,    -2.800,1.02200,     0,     9.300, 2.00000E-3, 2.20000E-1, 0.00000E+0, 0.00000E+0,1.00000,0,  100.0,     8.400,    -0.500,  17,1.0000
    43,'1 ',    -0.078,     0.000,     0.000,     0.000,1.03000,     0,     4.000, 0.00000E+0, 2.50000E-1, 0.00000E+0, 0.00000E+0,1.00000,1,  100.0,     0.000,    -4.000,  29,1.0000
    43,'2 ',    -0.078,     0.000,     0.000,     0.000,1.03000,     0,     4.000, 0.00000E+0, 2.50000E-1, 0.00000E+0, 0.00000E+0,1.00000,1,  100.0,     0.000,    -4.000,  29,1.0000
    43,'3 ',    -0.078,     0.000,     0.000,     0.000,1.03000,     0,     4.000, 0.00000E+0, 2.50000E-1, 0.00000E+0, 0.00000E+0,1.00000,1,  100.0,     0.000,    -4.000,  29,1.0000
    43,'4 ',    -0.078,     0.000,     0.000,     0.000,1.03000,     0,     4.000, 0.00000E+0, 2.50000E-1, 0.00000E+0, 0.00000E+0,1.00000,1,  100.0,     0.000,    -4.000,  29,1.0000
    43,'G1',    96.000,   -16.810,    41.900,   -28.400,1.03000,     0,    96.100, 1.66000E-3, 2.10000E-1, 0.00000E+0, 0.00000E+0,1.00000,1,  100.0,    96.000,     0.000,  29,1.0000
    43,'G2',    -0.156,    -4.100,    -4.100,    -4.100,1.03000,     0,     9.000, 0.00000E+0, 1.67000E-1, 0.00000E+0, 0.00000E+0,1.00000,1,  100.0,     0.000,    -9.000,  29,1.0000
    43,'GT',    75.217,   -13.171,    48.100,   -32.700,1.03000,     0,   110.400, 4.00000E-3, 2.19000E-1, 0.00000E+0, 0.00000E+0,1.00000,1,  100.0,    99.400,    20.000,  29,1.0000
    43,'M1',    -0.234,     0.000,     0.000,     0.000,1.03000,     0,    12.800, 0.00000E+0, 3.20000E-1, 0.00000E+0, 0.00000E+0,1.00000,1,  100.0,     0.000,   -11.190,  29,1.0000
    43,'M2',    -0.234,     0.000,     0.000,     0.000,1.03000,     0,    12.800, 0.00000E+0, 3.20000E-1, 0.00000E+0, 0.00000E+0,1.00000,1,  100.0,     0.000,   -11.190,  29,1.0000
    43,'M3',    -0.234,     0.000,     0.000,     0.000,1.03000,     0,    12.800, 0.00000E+0, 3.20000E-1, 0.00000E+0, 0.00000E+0,1.00000,1,  100.0,     0.000,   -11.190,  29,1.0000
    43,'M4',    -0.234,     0.000,     0.000,     0.000,1.03000,     0,    12.800, 0.00000E+0, 3.20000E-1, 0.00000E+0, 0.00000E+0,1.00000,1,  100.0,     0.000,   -11.190,  29,1.0000
    43,'M5',    -0.234,     0.000,     0.000,     0.000,1.03000,     0,    12.800, 0.00000E+0, 3.20000E-1, 0.00000E+0, 0.00000E+0,1.00000,1,  100.0,     0.000,   -11.190,  29,1.0000
    43,'M6',    -0.468,     0.000,     0.000,     0.000,1.03000,     0,    25.600, 0.00000E+0, 2.33000E-1, 0.00000E+0, 0.00000E+0,1.00000,1,  100.0,     0.000,   -25.600,  29,1.0000
    43,'ST',     0.000,     0.000,    46.300,   -31.400,1.03000,     0,   106.300, 3.84000E-3, 1.80000E-1, 0.00000E+0, 0.00000E+0,1.00000,0,  100.0,    95.700,    10.000,  29,1.0000
    50,'1 ',    29.384,    31.000,    31.000,   -21.100,1.03000,     0,    71.200, 0.00000E+0, 1.81000E-1, 0.00000E+0, 0.00000E+0,1.00000,1,  100.0,    64.100,    20.000, 211,1.0000
    61,'G1',    99.500,   -14.860,    48.200,   -32.700,1.03000,     0,   110.600, 0.00000E+0, 3.00000E-1, 0.00000E+0, 0.00000E+0,1.00000,1,  100.0,    99.500,     0.000, 191,1.0000
    61,'G2',     3.840,    -0.573,    48.200,   -32.700,1.03000,     0,   110.600, 0.00000E+0, 3.00000E-1, 0.00000E+0, 0.00000E+0,1.00000,1,  100.0,    99.500,     0.000, 191,1.0000
    61,'GT',    40.900,    -9.747,    42.300,   -28.700,1.03000,     0,    97.000, 4.00000E-3, 2.00000E-1, 0.00000E+0, 0.00000E+0,1.00000,0,  100.0,    95.000,    17.000, 191,1.0000
    61,'M1',    -1.350,    -0.202,     0.000,    -5.800,1.03000,     0,     9.900, 6.40000E-3, 1.98000E-1, 0.00000E+0, 0.00000E+0,1.00000,1,  100.0,     0.000,    -9.698, 191,1.0000
    61,'M2',    -1.688,     0.000,     0.000,     0.000,1.03000,     0,    12.500, 5.50000E-3, 2.50000E-1, 0.00000E+0, 0.00000E+0,1.00000,1,  100.0,     0.000,   -12.520, 191,1.0000
    61,'ST',    19.200,    -4.576,    23.800,   -15.000,1.03000,     0,    50.600, 5.00000E-3, 2.00000E-1, 0.00000E+0, 0.00000E+0,1.00000,0,  100.0,    45.500,    12.000, 191,1.0000
   102,'1 ',    13.100,    -3.275,    28.600,   -19.400,0.97300,     0,    65.500, 1.95000E-3, 3.40000E-1, 0.00000E+0, 0.00000E+0,1.00000,0,  100.0,    60.000,     0.000,  17,1.0000
   108,'2 ',    26.123,    -7.374,    28.600,   -19.400,0.97200,     0,    65.500, 1.95000E-3, 3.40000E-1, 0.00000E+0, 0.00000E+0,1.00000,1,  100.0,    60.000,     0.000,  17,1.0000
   130,'3A',   248.875,    14.731,   188.900,  -128.200,1.03000,     0,   483.300, 5.10000E-3, 2.07000E-1, 0.00000E+0, 0.00000E+0,1.00000,1,  100.0,   395.000,   155.500,  17,1.0000
   151,'1 ',     5.682,     6.409,    80.200,   -54.400,0.98000,     0,   184.000, 2.00000E-3, 2.42000E-1, 0.00000E+0, 0.00000E+0,1.00000,1,  100.0,   160.000,     0.000,  17,1.0000
   154,'2 ',     2.800,    39.972,    90.200,   -61.200,0.98000,     0,   207.000, 2.00000E-3, 3.30000E-1, 0.00000E+0, 0.00000E+0,1.00000,0,  100.0,   190.000,    -3.100,  17,1.0000
   172,'1 ',     5.600,    -0.320,     2.700,    -1.800,1.02500,     0,     6.300, 2.00000E-3, 2.00000E-1, 0.00000E+0, 0.00000E+0,1.00000,1,  100.0,     5.600,     0.000,  17,1.0000
   172,'2 ',     3.400,    -0.194,     1.600,    -1.100,1.02500,     0,     3.800, 2.00000E-3, 2.00000E-1, 0.00000E+0, 0.00000E+0,1.00000,1,  100.0,     3.400,     0.000,  17,1.0000
   172,'3 ',     1.721,    -0.098,     1.600,    -1.100,1.02500,     0,     3.800, 2.00000E-3, 2.00000E-1, 0.00000E+0, 0.00000E+0,1.00000,1,  100.0,     3.400,     0.000,  17,1.0000
   172,'4 ',     3.300,     0.855,     2.700,    -1.800,1.02500,     0,     6.300, 2.00000E-3, 2.00000E-1, 0.00000E+0, 0.00000E+0,1.00000,0,  100.0,     5.600,     0.000,  17,1.0000
   174,'1 ',    21.159,     5.958,    31.600,   -18.000,1.04663,     0,    54.600, 2.00000E-3, 2.20000E-1, 0.00000E+0, 0.00000E+0,1.00000,1,  100.0,    50.000,     0.000,  17,1.0000
   176,'1 ',     0.267,     8.700,     8.700,    -5.900,1.04775,     0,    20.000, 1.00000E-3, 2.50000E-1, 0.00000E+0, 0.00000E+0,1.00000,1,  100.0,    18.000,    -0.500, 194,1.0000
   176,'2 ',     0.000,     0.000,     9.600,    -5.800,1.04775,     0,    20.000, 1.00000E-3, 3.30000E-1, 0.00000E+0, 0.00000E+0,1.00000,0,  100.0,    18.000,    -2.000, 194,1.0000
   181,'2 ',     7.593,     0.839,     7.800,    -5.300,1.00000,     0,    15.000, 2.00000E-3, 1.70000E-1, 0.00000E+0, 0.00000E+0,1.00000,1,  100.0,    16.200,     0.000,  17,1.0000
   181,'3 ',     2.200,     1.239,     8.700,    -5.900,1.00000,     0,    15.000, 2.00000E-3, 1.70000E-1, 0.00000E+0, 0.00000E+0,1.00000,0,  100.0,    18.000,     0.000,  17,1.0000
   181,'4A',     3.300,     1.858,    12.800,    -8.700,1.00000,     0,    31.100, 1.00000E-3, 3.70000E-1, 0.00000E+0, 0.00000E+0,1.00000,0,  100.0,    26.500,    -0.500,  17,1.0000
   183,'1 ',    11.045,    -5.300,     7.800,    -5.300,1.01500,     0,    18.000, 2.00000E-3, 2.10000E-1, 0.00000E+0, 0.00000E+0,1.00000,1,  100.0,    17.400,     0.000,  17,1.0000
   189,'1 ',    -7.277,     0.000,     0.000,     0.000,1.00000,     0,    15.000, 0.00000E+0, 2.50000E-1, 0.00000E+0, 0.00000E+0,1.00000,1,  100.0,     0.000,   -15.000,  17,1.0000
   189,'2 ',    -7.277,     0.000,     0.000,     0.000,1.00000,     0,    15.000, 0.00000E+0, 2.50000E-1, 0.00000E+0, 0.00000E+0,1.00000,1,  100.0,     0.000,   -15.000,  17,1.0000
   190,'2A',    12.400,    -9.337,    27.100,   -18.400,1.00000,     0,    62.200, 1.00000E-3, 3.20000E-1, 0.00000E+0, 0.00000E+0,1.00000,0,  100.0,    56.000,     0.000,  17,1.0000
   196,'1 ',     5.000,     1.900,     1.900,    -1.300,1.04786,     0,     4.300, 2.00000E-3, 2.00000E-1, 0.00000E+0, 0.00000E+0,1.00000,1,  100.0,     5.000,     0.000,  17,1.0000
   196,'2 ',     5.000,     1.900,     1.900,    -1.300,1.04786,     0,     4.300, 2.00000E-3, 2.00000E-1, 0.00000E+0, 0.00000E+0,1.00000,1,  100.0,     5.000,     0.000,  17,1.0000
   196,'3 ',     1.292,     1.838,     4.900,    -3.300,1.04786,     0,    11.300, 2.00000E-3, 3.00000E-1, 0.00000E+0, 0.00000E+0,1.00000,1,  100.0,    10.000,     0.000,  17,1.0000
   197,'2 ',     7.451,     3.609,    15.300,   -10.400,1.04761,     0,    35.000, 2.00000E-3, 2.00000E-1, 0.00000E+0, 0.00000E+0,1.00000,1,  100.0,    33.000,    -1.000,  17,1.0000
   214,'1 ',     0.029,     6.500,     6.500,    -4.400,1.03415,     0,    15.000, 2.00000E-3, 1.60000E-1, 0.00000E+0, 0.00000E+0,1.00000,1,  100.0,    14.100,     0.000,  17,1.0000
   222,'1 ',     2.980,     0.102,     4.900,    -3.300,1.03000,     0,    11.300, 2.00000E-3, 2.50000E-1, 0.00000E+0, 0.00000E+0,1.00000,1,  100.0,    11.000,     0.000,  17,1.0000
   248,'1 ',   100.800,    15.125,    48.800,   -33.100,1.04000,     0,   112.000, 0.00000E+0, 2.27100E-1, 0.00000E+0, 0.00000E+0,1.00000,1,  100.0,   100.800,    16.000,  36,1.0000
   248,'2 ',    59.432,     8.918,    48.800,   -33.100,1.04000,     0,   112.000, 0.00000E+0, 2.27100E-1, 0.00000E+0, 0.00000E+0,1.00000,1,  100.0,   100.800,    16.000,  36,1.0000
   255,'1 ',     0.963,     0.000,     0.000,     0.000,1.02560,     0,    14.000, 3.00000E-1, 2.30000E-1, 0.00000E+0, 0.00000E+0,1.00000,1,  100.0,    11.300,     0.000,  17,1.0000
   265,'1 ',     0.563,     0.000,     0.000,     0.000,1.02551,     0,    13.800, 3.00000E-1, 2.30000E-1, 0.00000E+0, 0.00000E+0,1.00000,1,  100.0,    10.100,     0.000,  17,1.0000
   268,'1 ',    -3.411,     0.000,     0.000,     0.000,1.00000,     0,    22.400, 0.00000E+0, 1.60000E-1, 0.00000E+0, 0.00000E+0,1.00000,1,  100.0,     0.000,   -22.400,  17,1.0000
   268,'E1',    -0.341,    -0.170,     0.000,     0.000,1.00000,     0,     2.600, 0.00000E+0, 1.60000E-1, 0.00000E+0, 0.00000E+0,1.00000,0,  100.0,     0.000,    -2.600,  17,1.0000
   268,'F1',    -1.023,     0.000,     0.000,     0.000,1.00000,     0,     8.200, 0.00000E+0, 1.60000E-1, 0.00000E+0, 0.00000E+0,1.00000,1,  100.0,     0.000,    -8.200,  17,1.0000
   268,'F2',    -1.023,     0.000,     0.000,     0.000,1.00000,     0,     8.200, 0.00000E+0, 1.60000E-1, 0.00000E+0, 0.00000E+0,1.00000,1,  100.0,     0.000,    -8.200,  17,1.0000
   287,'1 ',   -12.351,     0.000,     0.000,     0.000,1.01747,     0,    22.400, 0.00000E+0, 1.60000E-1, 0.00000E+0, 0.00000E+0,1.00000,1,  100.0,     0.000,   -22.400,  17,1.0000
   287,'E2',    -0.650,     0.000,     0.000,     0.000,1.01747,     0,     2.600, 0.00000E+0, 1.60000E-1, 0.00000E+0, 0.00000E+0,1.00000,1,  100.0,     0.000,    -2.600,  17,1.0000
   288,'1 ',    -3.411,     0.000,     0.000,     0.000,1.00723,     0,    22.400, 0.00000E+0, 1.60000E-1, 0.00000E+0, 0.00000E+0,1.00000,1,  100.0,     0.000,   -22.400,  17,1.0000
   289,'1 ',    -2.729,     0.000,     0.000,     0.000,1.00747,     0,    18.700, 0.00000E+0, 2.11000E-1, 0.00000E+0, 0.00000E+0,1.00000,1,  100.0,     0.000,   -18.700,  17,1.0000
   289,'2 ',    -2.729,     0.000,     0.000,     0.000,1.00747,     0,    18.700, 0.00000E+0, 2.11000E-1, 0.00000E+0, 0.00000E+0,1.00000,1,  100.0,     0.000,   -18.700,  17,1.0000
   332,'1 ',     8.533,    -0.337,     5.500,    -3.700,1.04763,     0,    12.500, 0.00000E+0, 1.30000E-1, 0.00000E+0, 0.00000E+0,1.00000,1,  100.0,    11.300,     0.000,   4,1.0000
   342,'4A',   260.880,    39.331,   181.000,  -123.000,1.03000,     0,   483.000, 2.00000E-3, 2.50000E-1, 0.00000E+0, 0.00000E+0,1.00000,1,  100.0,   430.000,   169.000,  17,1.0000
   345,'5A',   264.261,    39.882,   181.000,  -123.000,1.03000,     0,   483.700, 2.00000E-3, 2.50000E-1, 0.00000E+0, 0.00000E+0,1.00000,1,  100.0,   435.400,   150.000,  17,1.0000
   350,'6A',   398.708,    56.497,   210.000,   -50.000,1.03000,     0,   472.800, 2.00000E-3, 2.47000E-1, 0.00000E+0, 0.00000E+0,1.00000,1,  100.0,   425.000,   150.000,  17,1.0000
   377,'1 ',     0.000,     0.000,     2.400,    -1.600,1.03085,     0,     5.600, 2.00000E-3, 2.00000E-1, 0.00000E+0, 0.00000E+0,1.00000,0,  100.0,     5.000,     0.000,  17,1.0000
   381,'1 ',     0.000,     0.000,     1.700,    -1.200,1.04255,     0,     4.000, 2.00000E-3, 2.00000E-1, 0.00000E+0, 0.00000E+0,1.00000,0,  100.0,     3.600,     0.000,  17,1.0000
   383,'1 ',   152.023,   -37.000,    48.000,   -37.000,1.01800,     0,   165.000, 7.40000E-3, 1.41000E-1, 0.00000E+0, 0.00000E+0,1.00000,1,  100.0,   158.000,    55.000,  17,1.0000
   383,'2 ',    57.000,   -35.947,    53.000,   -47.000,1.01800,     0,   171.000, 7.40000E-3, 1.41000E-1, 0.00000E+0, 0.00000E+0,1.00000,0,  100.0,   163.000,    57.000,  17,1.0000
   383,'3 ',    50.000,   -31.532,    35.000,   -43.000,1.01800,     0,   157.000, 7.50000E-3, 1.31000E-1, 0.00000E+0, 0.00000E+0,1.00000,0,  100.0,   133.000,    50.000,  17,1.0000
   403,'3 ',   461.118,   -99.900,   310.400,   -99.900,1.03500,   610,   586.000, 4.00000E-3, 2.77000E-1, 0.00000E+0, 0.00000E+0,1.00000,1,  100.0,   498.000,   142.000,  17,1.0000
   405,'1 ',    79.300,   -24.700,    25.800,   -24.700,1.05000,     0,    93.900, 3.30000E-3, 1.60000E-1, 0.00000E+0, 0.00000E+0,1.00000,1,  100.0,    82.500,     8.000, 251,1.0000
   407,'1 ',     7.474,     0.907,     6.000,    -4.100,1.02756,     0,    13.800, 0.00000E+0, 2.30000E-1, 0.00000E+0, 0.00000E+0,1.00000,1,  100.0,    12.400,     0.000,  17,1.0000
   408,'1 ',    22.245,     7.093,    15.400,   -10.500,1.02671,     0,    35.300, 0.00000E+0, 1.80000E-1, 0.00000E+0, 0.00000E+0,1.00000,1,  100.0,    31.800,     0.000,  17,1.0000
   414,'1 ',    10.604,    -3.038,    10.000,    -6.800,1.02000,     0,    22.800, 0.00000E+0, 2.40000E-1, 0.00000E+0, 0.00000E+0,1.00000,1,  100.0,    20.600,     0.000,  17,1.0000
   422,'1A',   164.000,   -73.857,   208.000,  -110.000,1.00000,     0,   477.000, 5.07000E-3, 3.00000E-1, 0.00000E+0, 0.00000E+0,1.00000,1,  100.0,   415.000,   164.000,  17,1.0000
   424,'2A',   338.999,   -51.589,   208.000,  -110.000,1.00000,     0,   477.000, 5.07000E-3, 3.00000E-1, 0.00000E+0, 0.00000E+0,1.00000,1,  100.0,   415.000,   199.000,  17,1.0000
   450,'1 ',     0.767,     1.068,     2.400,    -1.600,1.04788,     0,     7.000, 0.00000E+0, 2.00000E-1, 0.00000E+0, 0.00000E+0,1.00000,1,  100.0,     6.300,     0.000,  17,1.0000
   479,'1 ',     2.700,     8.700,     8.700,    -5.900,1.04761,     0,    20.000, 2.00000E-3, 2.50000E-1, 0.00000E+0, 0.00000E+0,1.00000,0,  100.0,    18.000,    -1.000,  17,1.0000
   490,'3 ',   441.480,   106.578,   255.400,  -173.300,1.01500,     0,   586.000, 1.89000E-3, 2.77000E-1, 0.00000E+0, 0.00000E+0,1.00000,1,  100.0,   527.400,   142.000,   5,1.0000
   491,'1 ',   403.652,    91.728,   138.400,   -34.400,1.01500,     0,   482.400, 1.89000E-3, 2.50000E-1, 0.00000E+0, 0.00000E+0,1.00000,1,  100.0,   422.000,   123.600,   5,1.0000
   492,'2A',   351.867,    82.355,   208.000,  -112.000,1.01500,     0,   482.400, 1.85000E-3, 2.50000E-1, 0.00000E+0, 0.00000E+0,1.00000,1,  100.0,   422.000,   200.000,   5,1.0000
   680,'1 ',    56.300,     7.168,    27.200,   -18.500,1.02000,     0,    62.500, 0.00000E+0, 2.10000E-1, 0.00000E+0, 0.00000E+0,1.00000,1,  100.0,    56.300,     0.000,  17,1.0000
   680,'10',    31.900,     4.062,    15.400,   -10.500,1.02000,     0,    35.400, 0.00000E+0, 2.20000E-1, 0.00000E+0, 0.00000E+0,1.00000,1,  100.0,    31.900,    12.000,  17,1.0000
   680,'11',    12.000,     1.528,    15.400,   -10.500,1.02000,     0,    35.400, 0.00000E+0, 2.20000E-1, 0.00000E+0, 0.00000E+0,1.00000,1,  100.0,    31.900,    12.000,  17,1.0000
   680,'12',     4.000,     1.684,    18.600,   -12.600,1.02000,     0,    42.600, 0.00000E+0, 1.60000E-1, 0.00000E+0, 0.00000E+0,1.00000,0,  100.0,    38.300,     4.000,  17,1.0000
   680,'14',    17.000,     7.156,    27.700,   -12.600,1.02000,     0,    67.500, 1.40000E-3, 1.90000E-1, 0.00000E+0, 0.00000E+0,1.00000,0,  100.0,    45.000,    17.000,  17,1.0000
   680,'15',    17.000,     7.156,    22.000,   -14.100,1.02000,     0,    71.200, 5.30000E-3, 1.44000E-1, 0.00000E+0, 0.00000E+0,1.00000,0,  100.0,    43.000,    17.000,  17,1.0000
   680,'3 ',     4.000,     1.684,    18.500,   -12.600,1.02000,     0,    42.600, 0.00000E+0, 1.60000E-1, 0.00000E+0, 0.00000E+0,1.00000,0,  100.0,    38.300,     4.000,  17,1.0000
   680,'9 ',     0.000,     0.000,    19.600,   -13.300,1.02000,     0,    44.900, 0.00000E+0, 2.60000E-1, 0.00000E+0, 0.00000E+0,1.00000,0,  100.0,    40.400,     0.000,  17,1.0000
  1031,'1 ',     0.000,     0.000,    13.900,    -9.500,1.02000,     0,    32.000, 3.50000E-3, 7.00000E-2, 0.00000E+0, 0.00000E+0,1.00000,0,  100.0,    28.800,     4.000,   1,1.0000
  1032,'2 ',     0.000,     0.000,    25.000,   -18.000,1.02000,     0,    49.000, 7.20000E-3, 1.45000E-1, 0.00000E+0, 0.00000E+0,1.00000,0,  100.0,    44.100,     4.000,   1,1.0000
  1033,'3 ',     0.000,     0.000,     9.500,    -6.400,1.02000,     0,    21.700, 4.50000E-3, 9.00000E-2, 0.00000E+0, 0.00000E+0,1.00000,0,  100.0,    19.500,     3.000,   1,1.0000
  1035,'4 ',    40.344,   -17.300,    25.500,   -17.300,1.02000,     0,    58.600, 1.40000E-3, 1.62000E-1, 0.00000E+0, 0.00000E+0,1.00000,1,  100.0,    52.700,     9.000,  21,1.0000
  1037,'5 ',     2.000,    -3.185,    25.500,   -17.300,1.02000,     0,    60.000, 1.40000E-3, 1.98000E-1, 0.00000E+0, 0.00000E+0,1.00000,1,  100.0,    52.700,     2.000,  21,1.0000
  1087,'2 ',     5.000,    -9.200,    13.400,    -9.200,1.00000,     0,    29.500, 6.00000E-3, 1.40000E-1, 0.00000E+0, 0.00000E+0,1.00000,0,  100.0,    25.100,     5.000,  33,1.0000
  1089,'1A',    35.628,   -13.900,    20.500,   -13.900,1.00000,     0,    47.100, 9.30000E-3, 1.88000E-1, 0.00000E+0, 0.00000E+0,1.00000,1,  100.0,    40.000,     2.270,  33,1.0000
  1101,'2 ',    15.010,    -9.500,    13.900,    -9.500,1.05000,     0,    32.000, 3.10000E-3, 1.98000E-1, 0.00000E+0, 0.00000E+0,1.00000,1,  100.0,    28.800,     0.000,  30,1.0000
  1146,'1A',    13.646,   -16.200,    30.000,   -16.200,1.01000,     0,    57.900, 0.00000E+0, 1.55000E-1, 0.00000E+0, 0.00000E+0,1.00000,1,  100.0,    49.200,    10.000,  39,1.0000
  1148,'1 ',    27.200,   -27.215,    72.600,   -49.300,1.02600,     0,   167.000, 3.00000E-3, 1.85000E-1, 0.00000E+0, 0.00000E+0,1.00000,1,  100.0,   151.100,     0.000,   1,1.0000
  1167,'1 ',     0.000,     0.000,     5.400,    -3.700,1.03000,     0,    12.500, 4.50000E-3, 1.68000E-1, 0.00000E+0, 0.00000E+0,1.00000,0,  100.0,    11.300,     0.750,   1,1.0000
  1168,'2 ',     0.000,     0.000,     4.100,    -3.700,1.00000,     0,     9.400, 5.00000E-3, 1.68000E-1, 0.00000E+0, 0.00000E+0,1.00000,0,  100.0,     8.400,     0.750,   1,1.0000
  1171,'1 ',     0.000,     0.000,    25.500,   -17.300,1.02000,     0,    60.000, 1.40000E-3, 1.98000E-1, 0.00000E+0, 0.00000E+0,1.00000,0,  100.0,    52.700,     9.000,   1,1.0000
  1173,'2 ',     2.000,   -17.300,    25.500,   -17.300,1.00000,     0,    72.000, 5.00000E-4, 1.60000E-1, 0.00000E+0, 0.00000E+0,1.00000,1,  100.0,    52.700,     2.000,   1,1.0000
  1205,'1 ',   100.000,    44.800,    44.800,   -30.400,1.10000,     0,   102.800, 4.00000E-3, 2.30000E-1, 0.00000E+0, 0.00000E+0,1.00000,1,  100.0,   100.000,    16.450,   9,1.0000
  1205,'11',    22.000,    10.036,    27.000,   -13.000,1.10000,     0,    33.800, 4.50000E-3, 1.47000E-1, 0.00000E+0, 0.00000E+0,1.00000,1,  100.0,    22.000,     2.000,   9,1.0000
  1205,'12',    86.000,    39.233,    39.700,   -30.000,1.10000,     0,    93.800, 3.40000E-3, 1.36000E-1, 0.00000E+0, 0.00000E+0,1.00000,1,  100.0,    86.000,    23.000,   9,1.0000
  1205,'15',     0.000,     0.000,     0.000,     0.000,1.10000,     0,    10.000, 0.00000E+0, 2.75000E-1, 0.00000E+0, 0.00000E+0,1.00000,0,  100.0,     0.000,    -8.000,   9,1.0000
  1205,'16',     0.000,     0.000,     0.000,     0.000,1.10000,     0,    10.000, 0.00000E+0, 2.75000E-1, 0.00000E+0, 0.00000E+0,1.00000,0,  100.0,     0.000,   -10.000,   9,1.0000
...